LAMMPS (10 Feb 2021)
#===============variable=============================
#=============thermostat=======================
variable nvt_dt            equal   0.0002
variable nvt_nsteps        equal   50000
variable thermo_nsteps     equal   2000
variable coor_nsteps       equal   1
variable cutoff            equal   5.0
variable neigh_skin        equal   0.5   # skin for the save the calculation of pbc
variable T_start           equal   300.0
variable T_end             equal   300.0
variable T_damp            equal   100*0.0002
variable seed              equal   999999999
variable mass1             equal   15.9994
variable mass2             equal   1.008
variable input_structure   string  data.lmp
variable integerate        string  verlet  # integerate algorithm in MD simulation
variable poten_function    string  reann_eqz
variable datatype          string  float  # optional float/double

units           metal
# this command should be used prior to setting up a simulation box via the create_box or
# read_data commands. Restart files also store this setting.
dimension       3          # simulation dimensions
#newton          off        # calculate the pair interaction on each processor
#processors      3  3  3           # processor on each dimension
boundary        p   p   p   # p/f/s period/non-period/shrink_warp
# This command must be used before a simulation is setup via a read_data, read_restart,
# or create_box command.
atom_style      atomic      # properties to store and read
# The id and map keywords must be specified before a simulation box is defined;
# other keywords can be specified any time.
#atom_modify     map yes   # non-zero atom IDs can be assigned to each atom.
read_data       data.lmp
Reading data file ...
  orthogonal box = (0.0000000 0.0000000 0.0000000) to (12.618500 12.618500 12.618500)
  reading atoms ...
  192 atoms
mass 1 15.9994
mass 2 1.008
replicate  1  1   1
Replicating atoms ...
  orthogonal box = (0.0000000 0.0000000 0.0000000) to (12.618500 12.618500 12.618500)
  192 atoms
  replicate CPU = 0.001 seconds

neighbor 0.5 bin
velocity all create 300 999999999
pair_style reann_eqz
pair_coeff * * 5 float 2 O H
# used for thermalstat
   timestep 0.0002
   fix 1 all nvt temp 300 300 0.02
   thermo 2000
   run 50000
  update every 1 steps, delay 10 steps, check yes
Step Temp E_pair E_mol TotEng Press
0          300   -30035.109            0   -30027.703   -3925.0618
Averages over the last 13 of 26 rows, steps 26000 to 50000:
Temp E_pair E_mol TotEng Press
373.193 -29957.4 0 -29948.2 -8085.99
Loop time of 16790.7 on 8 procs for 50000 steps with 192 atoms

#   reset_timestep 0
## used for calculate the rdf
#   dump 11 all custom 1 dump.nvt.lmp id element xu yu zu vx vy vz
#   dump_modify 11 element O H
#   dump_modify 11 format line "%3i %s %12.8f %12.8f %12.8f %12.8f %12.8f %12.8f"
#   dump_modify 11 sort id
#   run 500000
